*SPEF "1481-1998"
*DESIGN "i2c_master_top"
*DATE "Sun May 19 23:51:55 2024"
*VENDOR "Synopsys, Inc."
*PROGRAM "icc2 /home/synopsys/icc2/O-2018.06-SP1/linux64/nwtn/bin/icc2_exec"
*VERSION "O-2018.06-SP1 Jul 17, 2018"
*DESIGN_FLOW "ICC2 SPEF DR"
*DIVIDER /
*DELIMITER :
*T_UNIT 1 NS
*C_UNIT 1 FF
*R_UNIT 1 OHM
*L_UNIT 1 HENRY

// XY_UNIT 1 UM
// PARASITIC_TECH worst at 25.000 degree

*NAME_MAP
*1 wb_clk_i
*2 wb_rst_i
*3 arst_i
*4 wb_adr_i[2]
*5 wb_adr_i[1]
*6 wb_adr_i[0]
*7 wb_dat_i[7]
*8 wb_dat_i[6]
*9 wb_dat_i[5]
*10 wb_dat_i[4]
*11 wb_dat_i[3]
*12 wb_dat_i[2]
*13 wb_dat_i[1]
*14 wb_dat_i[0]
*15 wb_dat_o[7]
*16 wb_dat_o[6]
*17 wb_dat_o[5]
*18 wb_dat_o[4]
*19 wb_dat_o[3]
*20 wb_dat_o[2]
*21 wb_dat_o[1]
*22 wb_dat_o[0]
*23 wb_we_i
*24 wb_stb_i
*25 wb_cyc_i
*26 wb_ack_o
*27 wb_inta_o
*28 scl_pad_i
*29 scl_pad_o
*30 scl_padoen_o
*31 sda_pad_i
*32 sda_pad_o
*33 sda_padoen_o
*34 VDD
*35 VSS
*36 GVDD
*37 GVSS
*38 wb_ack_o_reg
*39 txr_reg_7_
*40 txr_reg_6_
*41 txr_reg_5_
*42 txr_reg_4_
*43 txr_reg_3_
*44 txr_reg_2_
*45 txr_reg_1_
*46 txr_reg_0_
*47 prer_reg_15_
*48 prer_reg_14_
*49 prer_reg_13_
*50 prer_reg_12_
*51 prer_reg_11_
*52 prer_reg_10_
*53 prer_reg_9_
*54 prer_reg_8_
*55 prer_reg_7_
*56 prer_reg_6_
*57 prer_reg_5_
*58 prer_reg_4_
*59 prer_reg_3_
*60 prer_reg_2_
*61 prer_reg_1_
*62 prer_reg_0_
*63 ctr_reg_7_
*64 ctr_reg_6_
*65 ctr_reg_5_
*66 ctr_reg_4_
*67 ctr_reg_3_
*68 ctr_reg_2_
*69 ctr_reg_1_
*70 ctr_reg_0_
*71 cr_reg_3_
*72 cr_reg_7_
*73 cr_reg_6_
*74 wb_dat_o_reg_6_
*75 cr_reg_5_
*76 cr_reg_4_
*77 wb_dat_o_reg_4_
*78 wb_dat_o_reg_3_
*79 cr_reg_2_
*80 wb_dat_o_reg_2_
*81 cr_reg_1_
*82 cr_reg_0_
*83 irq_flag_reg
*84 wb_dat_o_reg_0_
*85 al_reg
*86 wb_dat_o_reg_5_
*87 rxack_reg
*88 wb_dat_o_reg_7_
*89 tip_reg
*90 wb_dat_o_reg_1_
*91 wb_inta_o_reg
*92 U36
*93 U37
*94 U38
*95 U39
*96 U40
*97 U41
*98 U42
*99 U43
*100 U44
*101 U45
*102 U46
*103 U47
*104 U48
*105 U49
*106 U50
*107 U51
*108 U52
*109 U53
*110 U54
*111 U55
*112 U56
*113 U57
*114 U58
*115 U59
*116 U60
*117 U61
*118 U62
*119 U63
*120 U64
*121 U65
*122 U66
*123 U67
*124 U68
*125 U69
*126 U70
*127 U71
*128 U72
*129 U73
*130 U74
*131 U75
*132 U76
*133 U77
*134 U78
*135 U79
*136 U80
*137 U82
*138 U83
*139 U84
*140 U85
*141 U86
*142 U87
*143 U88
*144 U89
*145 U90
*146 U91
*147 U92
*148 U93
*149 U94
*150 U95
*151 U96
*152 U97
*153 U98
*154 U99
*155 U100
*156 U101
*157 U102
*158 U103
*159 U104
*160 U105
*161 U106
*162 U107
*163 U108
*164 U109
*165 U110
*166 U111
*167 U112
*168 U113
*169 U114
*170 U115
*171 U116
*172 U117
*173 U118
*174 U119
*175 U120
*176 U121
*177 U122
*178 U123
*179 U124
*180 U125
*181 U126
*182 HFSINV_242_3
*183 U128
*184 U129
*185 U130
*186 U131
*187 U132
*188 U133
*189 U134
*190 U135
*191 U136
*192 U137
*193 U138
*194 U139
*195 U140
*196 U141
*197 U142
*198 U143
*199 U144
*200 U145
*201 U146
*202 U147
*203 U148
*204 HFSBUF_694_0
*205 HFSBUF_916_1
*206 byte_controller/c_state_reg_0_
*207 byte_controller/ld_reg
*208 byte_controller/sr_reg_7_
*209 byte_controller/core_txd_reg
*210 byte_controller/cmd_ack_reg
*211 byte_controller/c_state_reg_1_
*212 byte_controller/shift_reg
*213 byte_controller/sr_reg_0_
*214 byte_controller/sr_reg_1_
*215 byte_controller/sr_reg_2_
*216 byte_controller/sr_reg_3_
*217 byte_controller/sr_reg_4_
*218 byte_controller/sr_reg_5_
*219 byte_controller/sr_reg_6_
*220 byte_controller/dcnt_reg_0_
*221 byte_controller/dcnt_reg_1_
*222 byte_controller/dcnt_reg_2_
*223 byte_controller/c_state_reg_2_
*224 byte_controller/c_state_reg_3_
*225 byte_controller/core_cmd_reg_1_
*226 byte_controller/core_cmd_reg_2_
*227 byte_controller/core_cmd_reg_3_
*228 byte_controller/c_state_reg_4_
*229 byte_controller/core_cmd_reg_0_
*230 byte_controller/ack_out_reg
*231 byte_controller/U36
*232 byte_controller/U37
*233 byte_controller/U38
*234 byte_controller/U39
*235 byte_controller/U40
*236 byte_controller/U41
*237 byte_controller/U42
*238 byte_controller/U43
*239 byte_controller/U44
*240 byte_controller/U45
*241 byte_controller/U46
*242 byte_controller/U47
*243 byte_controller/U48
*244 byte_controller/U49
*245 byte_controller/U50
*246 byte_controller/U51
*247 byte_controller/U52
*248 byte_controller/U53
*249 byte_controller/U54
*250 byte_controller/U55
*251 byte_controller/U56
*252 byte_controller/U57
*253 byte_controller/U58
*254 byte_controller/U59
*255 byte_controller/U60
*256 byte_controller/U61
*257 byte_controller/U62
*258 byte_controller/U63
*259 byte_controller/U64
*260 byte_controller/U65
*261 byte_controller/U66
*262 byte_controller/U67
*263 byte_controller/U68
*264 byte_controller/U69
*265 byte_controller/U70
*266 byte_controller/U71
*267 byte_controller/U73
*268 byte_controller/U74
*269 byte_controller/U75
*270 byte_controller/U76
*271 byte_controller/U77
*272 byte_controller/U78
*273 byte_controller/U79
*274 byte_controller/U80
*275 byte_controller/U81
*276 byte_controller/U3
*277 byte_controller/U5
*278 byte_controller/U6
*279 byte_controller/U7
*280 byte_controller/U8
*281 byte_controller/U9
*282 byte_controller/U10
*283 byte_controller/U11
*284 byte_controller/U12
*285 byte_controller/HFSBUF_207_2
*286 byte_controller/U15
*287 byte_controller/U16
*288 byte_controller/U17
*289 byte_controller/U18
*290 byte_controller/U19
*291 byte_controller/U20
*292 byte_controller/U21
*293 byte_controller/U22
*294 byte_controller/U23
*295 byte_controller/U24
*296 byte_controller/U25
*297 byte_controller/U26
*298 byte_controller/U27
*299 byte_controller/U28
*300 byte_controller/U29
*301 byte_controller/U30
*302 byte_controller/U31
*303 byte_controller/U32
*304 byte_controller/U33
*305 byte_controller/U34
*306 byte_controller/U35
*307 byte_controller/U72
*308 byte_controller/U82
*309 byte_controller/U83
*310 byte_controller/bit_controller/cSDA_reg_0_
*311 byte_controller/bit_controller/cSDA_reg_1_
*312 byte_controller/bit_controller/cSCL_reg_0_
*313 byte_controller/bit_controller/cSCL_reg_1_
*314 byte_controller/bit_controller/filter_cnt_reg_0_
*315 byte_controller/bit_controller/filter_cnt_reg_8_
*316 byte_controller/bit_controller/filter_cnt_reg_1_
*317 byte_controller/bit_controller/filter_cnt_reg_2_
*318 byte_controller/bit_controller/filter_cnt_reg_3_
*319 byte_controller/bit_controller/filter_cnt_reg_4_
*320 byte_controller/bit_controller/filter_cnt_reg_5_
*321 byte_controller/bit_controller/filter_cnt_reg_6_
*322 byte_controller/bit_controller/filter_cnt_reg_7_
*323 byte_controller/bit_controller/filter_cnt_reg_9_
*324 byte_controller/bit_controller/filter_cnt_reg_10_
*325 byte_controller/bit_controller/filter_cnt_reg_11_
*326 byte_controller/bit_controller/filter_cnt_reg_12_
*327 byte_controller/bit_controller/filter_cnt_reg_13_
*328 byte_controller/bit_controller/fSDA_reg_0_
*329 byte_controller/bit_controller/fSDA_reg_1_
*330 byte_controller/bit_controller/fSDA_reg_2_
*331 byte_controller/bit_controller/fSCL_reg_0_
*332 byte_controller/bit_controller/fSCL_reg_1_
*333 byte_controller/bit_controller/fSCL_reg_2_
*334 byte_controller/bit_controller/sSCL_reg
*335 byte_controller/bit_controller/sSDA_reg
*336 byte_controller/bit_controller/dSDA_reg
*337 byte_controller/bit_controller/dSCL_reg
*338 byte_controller/bit_controller/sto_condition_reg
*339 byte_controller/bit_controller/sta_condition_reg
*340 byte_controller/bit_controller/busy_reg
*341 byte_controller/bit_controller/dout_reg
*342 byte_controller/bit_controller/sda_oen_reg
*343 byte_controller/bit_controller/al_reg
*344 byte_controller/bit_controller/scl_oen_reg
*345 byte_controller/bit_controller/dscl_oen_reg
*346 byte_controller/bit_controller/cnt_reg_0_
*347 byte_controller/bit_controller/clk_en_reg
*348 byte_controller/bit_controller/cmd_stop_reg
*349 byte_controller/bit_controller/c_state_reg_16_
*350 byte_controller/bit_controller/c_state_reg_13_
*351 byte_controller/bit_controller/c_state_reg_14_
*352 byte_controller/bit_controller/c_state_reg_15_
*353 byte_controller/bit_controller/sda_chk_reg
*354 byte_controller/bit_controller/c_state_reg_0_
*355 byte_controller/bit_controller/c_state_reg_1_
*356 byte_controller/bit_controller/c_state_reg_2_
*357 byte_controller/bit_controller/c_state_reg_3_
*358 byte_controller/bit_controller/c_state_reg_4_
*359 byte_controller/bit_controller/c_state_reg_5_
*360 byte_controller/bit_controller/c_state_reg_6_
*361 byte_controller/bit_controller/c_state_reg_7_
*362 byte_controller/bit_controller/c_state_reg_8_
*363 byte_controller/bit_controller/c_state_reg_9_
*364 byte_controller/bit_controller/c_state_reg_10_
*365 byte_controller/bit_controller/c_state_reg_11_
*366 byte_controller/bit_controller/c_state_reg_12_
*367 byte_controller/bit_controller/cnt_reg_15_
*368 byte_controller/bit_controller/cnt_reg_1_
*369 byte_controller/bit_controller/cnt_reg_2_
*370 byte_controller/bit_controller/cnt_reg_3_
*371 byte_controller/bit_controller/cnt_reg_4_
*372 byte_controller/bit_controller/cnt_reg_5_
*373 byte_controller/bit_controller/cnt_reg_6_
*374 byte_controller/bit_controller/cnt_reg_7_
*375 byte_controller/bit_controller/cnt_reg_8_
*376 byte_controller/bit_controller/cnt_reg_9_
*377 byte_controller/bit_controller/cnt_reg_10_
*378 byte_controller/bit_controller/cnt_reg_11_
*379 byte_controller/bit_controller/cnt_reg_12_
*380 byte_controller/bit_controller/cnt_reg_13_
*381 byte_controller/bit_controller/cnt_reg_14_
*382 byte_controller/bit_controller/cmd_ack_reg
*383 byte_controller/bit_controller/U3
*384 byte_controller/bit_controller/U4
*385 byte_controller/bit_controller/U6
*386 byte_controller/bit_controller/U8
*387 byte_controller/bit_controller/U10
*388 byte_controller/bit_controller/U12
*389 byte_controller/bit_controller/U14
*390 byte_controller/bit_controller/U16
*391 byte_controller/bit_controller/U18
*392 byte_controller/bit_controller/U20
*393 byte_controller/bit_controller/U22
*394 byte_controller/bit_controller/U24
*395 byte_controller/bit_controller/U26
*396 byte_controller/bit_controller/U28
*397 byte_controller/bit_controller/U30
*398 byte_controller/bit_controller/U32
*399 byte_controller/bit_controller/U34
*400 byte_controller/bit_controller/U39
*401 byte_controller/bit_controller/U40
*402 byte_controller/bit_controller/U41
*403 byte_controller/bit_controller/U42
*404 byte_controller/bit_controller/U44
*405 byte_controller/bit_controller/U45
*406 byte_controller/bit_controller/U46
*407 byte_controller/bit_controller/U47
*408 byte_controller/bit_controller/U48
*409 byte_controller/bit_controller/U51
*410 byte_controller/bit_controller/U52
*411 byte_controller/bit_controller/U53
*412 byte_controller/bit_controller/U54
*413 byte_controller/bit_controller/U55
*414 byte_controller/bit_controller/U58
*415 byte_controller/bit_controller/U59
*416 byte_controller/bit_controller/U60
*417 byte_controller/bit_controller/U61
*418 byte_controller/bit_controller/U63
*419 byte_controller/bit_controller/U64
*420 byte_controller/bit_controller/U65
*421 byte_controller/bit_controller/U67
*422 byte_controller/bit_controller/U73
*423 byte_controller/bit_controller/U76
*424 byte_controller/bit_controller/U77
*425 byte_controller/bit_controller/U78
*426 byte_controller/bit_controller/U84
*427 byte_controller/bit_controller/U85
*428 byte_controller/bit_controller/U86
*429 byte_controller/bit_controller/U91
*430 byte_controller/bit_controller/U98
*431 byte_controller/bit_controller/U99
*432 byte_controller/bit_controller/U100
*433 byte_controller/bit_controller/U101
*434 byte_controller/bit_controller/U102
*435 byte_controller/bit_controller/U103
*436 byte_controller/bit_controller/U105
*437 byte_controller/bit_controller/U108
*438 byte_controller/bit_controller/U109
*439 byte_controller/bit_controller/U110
*440 byte_controller/bit_controller/U111
*441 byte_controller/bit_controller/U112
*442 byte_controller/bit_controller/U113
*443 byte_controller/bit_controller/U114
*444 byte_controller/bit_controller/U115
*445 byte_controller/bit_controller/U117
*446 byte_controller/bit_controller/U119
*447 byte_controller/bit_controller/U121
*448 byte_controller/bit_controller/U122
*449 byte_controller/bit_controller/U123
*450 byte_controller/bit_controller/U124
*451 byte_controller/bit_controller/U125
*452 byte_controller/bit_controller/U126
*453 byte_controller/bit_controller/U130
*454 byte_controller/bit_controller/U134
*455 byte_controller/bit_controller/U136
*456 byte_controller/bit_controller/U140
*457 byte_controller/bit_controller/U141
*458 byte_controller/bit_controller/U142
*459 byte_controller/bit_controller/U144
*460 byte_controller/bit_controller/U145
*461 byte_controller/bit_controller/U149
*462 byte_controller/bit_controller/U151
*463 byte_controller/bit_controller/U152
*464 byte_controller/bit_controller/U154
*465 byte_controller/bit_controller/U155
*466 byte_controller/bit_controller/U160
*467 byte_controller/bit_controller/U165
*468 byte_controller/bit_controller/U170
*469 byte_controller/bit_controller/U171
*470 byte_controller/bit_controller/U172
*471 byte_controller/bit_controller/U173
*472 byte_controller/bit_controller/U174
*473 byte_controller/bit_controller/U175
*474 byte_controller/bit_controller/U181
*475 byte_controller/bit_controller/U182
*476 byte_controller/bit_controller/U183
*477 byte_controller/bit_controller/U184
*478 byte_controller/bit_controller/slave_wait_reg
*479 byte_controller/bit_controller/copt_h_inst_5
*480 byte_controller/bit_controller/copt_h_inst_6
*481 byte_controller/bit_controller/U9
*482 byte_controller/bit_controller/U11
*483 byte_controller/bit_controller/U13
*484 byte_controller/bit_controller/U15
*485 byte_controller/bit_controller/copt_h_inst_7
*486 copt_h_inst_8
*487 byte_controller/bit_controller/copt_h_inst_9
*488 byte_controller/bit_controller/copt_h_inst_10
*489 byte_controller/copt_h_inst_11
*490 byte_controller/bit_controller/U27
*491 byte_controller/bit_controller/U29
*492 byte_controller/bit_controller/U31
*493 byte_controller/bit_controller/U33
*494 byte_controller/bit_controller/U35
*495 byte_controller/bit_controller/U36
*496 byte_controller/bit_controller/U37
*497 byte_controller/bit_controller/U38
*498 byte_controller/bit_controller/U43
*499 byte_controller/bit_controller/U49
*500 byte_controller/bit_controller/U50
*501 byte_controller/bit_controller/U56
*502 byte_controller/bit_controller/U57
*503 byte_controller/bit_controller/U62
*504 byte_controller/bit_controller/U66
*505 byte_controller/bit_controller/U68
*506 byte_controller/bit_controller/U69
*507 byte_controller/bit_controller/U70
*508 byte_controller/bit_controller/U71
*509 byte_controller/bit_controller/U72
*510 byte_controller/bit_controller/U74
*511 byte_controller/bit_controller/U75
*512 byte_controller/bit_controller/U79
*513 byte_controller/bit_controller/U80
*514 byte_controller/bit_controller/U81
*515 byte_controller/bit_controller/U82
*516 byte_controller/bit_controller/U83
*517 byte_controller/bit_controller/U87
*518 byte_controller/bit_controller/U88
*519 byte_controller/bit_controller/U89
*520 byte_controller/bit_controller/U90
*521 byte_controller/bit_controller/U92
*522 byte_controller/bit_controller/U93
*523 byte_controller/bit_controller/U94
*524 byte_controller/bit_controller/U95
*525 byte_controller/bit_controller/U96
*526 byte_controller/bit_controller/U97
*527 byte_controller/bit_controller/U104
*528 byte_controller/bit_controller/U106
*529 byte_controller/bit_controller/U107
*530 byte_controller/bit_controller/U116
*531 byte_controller/bit_controller/sub_260/U1
*532 byte_controller/bit_controller/sub_260/U2
*533 byte_controller/bit_controller/sub_260/U3
*534 byte_controller/bit_controller/sub_260/U4
*535 byte_controller/bit_controller/sub_260/U5
*536 byte_controller/bit_controller/sub_260/U6
*537 byte_controller/bit_controller/sub_260/U7
*538 byte_controller/bit_controller/sub_260/U8
*539 byte_controller/bit_controller/sub_260/U9
*540 byte_controller/bit_controller/sub_260/U10
*541 byte_controller/bit_controller/sub_260/U11
*542 byte_controller/bit_controller/sub_260/U12
*543 byte_controller/bit_controller/sub_260/U13
*544 byte_controller/bit_controller/sub_260/U14
*545 byte_controller/bit_controller/sub_260/U15
*546 byte_controller/bit_controller/sub_260/U16
*547 byte_controller/bit_controller/sub_260/U17
*548 byte_controller/bit_controller/sub_260/U18
*549 byte_controller/bit_controller/sub_260/U19
*550 byte_controller/bit_controller/sub_260/U20
*551 byte_controller/bit_controller/sub_260/U21
*552 byte_controller/bit_controller/sub_260/U22
*553 byte_controller/bit_controller/sub_260/U23
*554 byte_controller/bit_controller/sub_260/U24
*555 byte_controller/bit_controller/sub_260/U25
*556 byte_controller/bit_controller/sub_260/U26
*557 byte_controller/bit_controller/sub_260/U27
*558 byte_controller/bit_controller/sub_260/U28
*559 byte_controller/bit_controller/sub_260/U29
*560 byte_controller/bit_controller/sub_260/U30
*561 byte_controller/bit_controller/sub_260/U31
*562 byte_controller/bit_controller/sub_260/U32
*563 byte_controller/bit_controller/sub_260/U33
*564 byte_controller/bit_controller/sub_260/U34
*565 byte_controller/bit_controller/sub_260/U35
*566 byte_controller/bit_controller/sub_260/U36
*567 byte_controller/bit_controller/sub_260/U37
*568 byte_controller/bit_controller/sub_228/U1
*569 byte_controller/bit_controller/sub_228/U2
*570 byte_controller/bit_controller/sub_228/U3
*571 byte_controller/bit_controller/sub_228/U4
*572 byte_controller/bit_controller/sub_228/U5
*573 byte_controller/bit_controller/sub_228/U6
*574 byte_controller/bit_controller/sub_228/U7
*575 byte_controller/bit_controller/sub_228/U8
*576 byte_controller/bit_controller/sub_228/U9
*577 byte_controller/bit_controller/sub_228/U10
*578 byte_controller/bit_controller/sub_228/U11
*579 byte_controller/bit_controller/sub_228/U12
*580 byte_controller/bit_controller/sub_228/U13
*581 byte_controller/bit_controller/sub_228/U14
*582 byte_controller/bit_controller/sub_228/U15
*583 byte_controller/bit_controller/sub_228/U16
*584 byte_controller/bit_controller/sub_228/U17
*585 byte_controller/bit_controller/sub_228/U18
*586 byte_controller/bit_controller/sub_228/U19
*587 byte_controller/bit_controller/sub_228/U20
*588 byte_controller/bit_controller/sub_228/U21
*589 byte_controller/bit_controller/sub_228/U22
*590 byte_controller/bit_controller/sub_228/U23
*591 byte_controller/bit_controller/sub_228/U24
*592 byte_controller/bit_controller/sub_228/U25
*593 byte_controller/bit_controller/sub_228/U26
*594 byte_controller/bit_controller/sub_228/U27
*595 byte_controller/bit_controller/sub_228/U28
*596 byte_controller/bit_controller/sub_228/U29
*597 byte_controller/bit_controller/sub_228/U30
*598 byte_controller/bit_controller/sub_228/U31
*599 byte_controller/bit_controller/sub_228/U32
*600 byte_controller/bit_controller/sub_228/U33
*601 byte_controller/bit_controller/sub_228/U34
*602 byte_controller/bit_controller/sub_228/U35
*603 byte_controller/bit_controller/sub_228/U36
*604 byte_controller/bit_controller/sub_228/U37
*605 byte_controller/bit_controller/sub_228/U38
*606 byte_controller/bit_controller/sub_228/U39
*607 byte_controller/bit_controller/sub_228/U40
*608 byte_controller/bit_controller/sub_228/U41
*609 byte_controller/bit_controller/sub_228/U42
*610 byte_controller/bit_controller/sub_228/U43
*611 byte_controller/bit_controller/copt_h_inst_12
*612 byte_controller/bit_controller/copt_h_inst_13
*613 byte_controller/bit_controller/copt_h_inst_14
*614 byte_controller/bit_controller/copt_h_inst_16
*615 copt_h_inst_17
*616 copt_h_inst_18
*617 byte_controller/copt_h_inst_19
*618 byte_controller/bit_controller/copt_h_inst_20
*619 byte_controller/copt_h_inst_21
*620 byte_controller/bit_controller/copt_h_inst_22
*621 byte_controller/bit_controller/copt_h_inst_23
*622 byte_controller/bit_controller/copt_h_inst_24
*623 copt_h_inst_25
*624 byte_controller/bit_controller/copt_h_inst_26
*625 copt_h_inst_27
*626 copt_h_inst_28
*627 copt_h_inst_29
*628 byte_controller/bit_controller/copt_h_inst_30
*629 copt_h_inst_31
*630 copt_h_inst_32
*631 byte_controller/bit_controller/copt_h_inst_33
*632 copt_h_inst_34
*633 copt_h_inst_35
*634 copt_h_inst_36
*635 byte_controller/bit_controller/copt_h_inst_37
*636 byte_controller/bit_controller/copt_h_inst_38
*637 byte_controller/bit_controller/copt_h_inst_39
*638 byte_controller/bit_controller/copt_h_inst_40
*639 byte_controller/copt_h_inst_41
*640 byte_controller/copt_h_inst_42
*641 byte_controller/bit_controller/copt_h_inst_43
*642 byte_controller/bit_controller/copt_h_inst_44
*643 copt_h_inst_45
*644 byte_controller/copt_h_inst_46
*645 byte_controller/copt_h_inst_47
*646 byte_controller/copt_h_inst_48
*647 byte_controller/copt_h_inst_49
*648 byte_controller/copt_h_inst_50
*649 byte_controller/bit_controller/copt_h_inst_51
*650 byte_controller/copt_h_inst_52
*651 byte_controller/bit_controller/copt_h_inst_54
*652 byte_controller/bit_controller/copt_h_inst_55
*653 copt_h_inst_56
*654 byte_controller/bit_controller/copt_h_inst_57
*655 byte_controller/bit_controller/copt_h_inst_58
*656 byte_controller/bit_controller/copt_h_inst_59
*657 copt_h_inst_60
*658 copt_h_inst_61
*659 copt_h_inst_63
*660 byte_controller/bit_controller/copt_h_inst_64
*661 byte_controller/bit_controller/copt_h_inst_68
*662 byte_controller/bit_controller/copt_h_inst_70
*663 byte_controller/bit_controller/copt_h_inst_71
*664 byte_controller/bit_controller/copt_h_inst_72
*665 byte_controller/bit_controller/copt_h_inst_73
*666 byte_controller/bit_controller/copt_h_inst_74
*667 copt_h_inst_75
*668 byte_controller/copt_h_inst_76
*669 byte_controller/bit_controller/copt_h_inst_77
*670 byte_controller/bit_controller/copt_h_inst_78
*671 byte_controller/bit_controller/copt_h_inst_79
*672 byte_controller/bit_controller/copt_h_inst_80
*673 byte_controller/bit_controller/copt_h_inst_81
*674 byte_controller/copt_h_inst_82
*675 byte_controller/copt_h_inst_83
*676 copt_h_inst_84
*677 byte_controller/bit_controller/copt_h_inst_85
*678 byte_controller/copt_h_inst_87
*679 byte_controller/ropt_h_inst_88
*680 byte_controller/bit_controller/ropt_h_inst_89
*681 ropt_h_inst_90
*682 N15
*683 sr_1
*684 sr_0
*685 N38
*686 N39
*687 N40
*688 N41
*689 N42
*690 N43
*691 N44
*692 N45
*693 done
*694 i2c_al
*695 irxack
*696 N99
*697 N100
*698 N101
*699 N102
*700 N106
*701 n4
*702 n5
*703 n6
*704 n7
*705 n8
*706 n9
*707 n10
*708 n11
*709 n12
*710 n13
*711 n14
*712 n150
*713 n16
*714 n17
*715 n18
*716 n19
*717 n20
*718 n21
*719 n22
*720 n23
*721 n24
*722 n25
*723 n26
*724 n27
*725 n28
*726 n29
*727 n35
*728 n36
*729 n37
*730 n380
*731 n390
*732 n400
*733 n410
*734 n420
*735 n430
*736 n440
*737 n450
*738 n46
*739 n47
*740 n48
*741 n49
*742 n50
*743 n51
*744 n52
*745 n53
*746 n54
*747 n55
*748 n56
*749 n57
*750 n58
*751 n59
*752 n60
*753 n61
*754 n62
*755 n63
*756 n64
*757 n65
*758 n66
*759 n67
*760 n68
*761 n69
*762 n70
*763 n71
*764 n72
*765 n73
*766 n74
*767 n75
*768 n76
*769 n77
*770 n78
*771 n79
*772 n80
*773 n81
*774 n82
*775 n83
*776 n84
*777 n85
*778 n86
*779 n87
*780 n88
*781 n89
*782 n90
*783 n91
*784 n92
*785 n93
*786 n94
*787 n95
*788 n96
*789 n97
*790 n98
*791 n990
*792 n1000
*793 n1010
*794 n1020
*795 n103
*796 n104
*797 n105
*798 n1060
*799 n107
*800 n108
*801 n109
*802 n110
*803 n111
*804 n112
*805 n113
*806 n114
*807 n115
*808 n116
*809 n117
*810 n118
*811 n119
*812 n120
*813 n121
*814 n122
*815 n123
*816 n124
*817 n125
*818 n126
*819 n131
*820 n132
*821 n133
*822 n134
*823 n135
*824 n136
*825 prer[15]
*826 prer[14]
*827 prer[13]
*828 prer[12]
*829 prer[11]
*830 prer[10]
*831 prer[9]
*832 prer[8]
*833 prer[7]
*834 prer[6]
*835 prer[5]
*836 prer[4]
*837 prer[3]
*838 prer[2]
*839 prer[1]
*840 prer[0]
*841 ctr[7]
*842 ctr[6]
*843 ctr[5]
*844 ctr[4]
*845 ctr[3]
*846 ctr[2]
*847 ctr[1]
*848 ctr[0]
*849 rxr[7]
*850 rxr[6]
*851 rxr[5]
*852 rxr[4]
*853 rxr[3]
*854 rxr[2]
*855 rxr[1]
*856 rxr[0]
*857 sr[7]
*858 sr[6]
*859 sr[5]
*860 txr[7]
*861 txr[6]
*862 txr[5]
*863 txr[4]
*864 txr[3]
*865 txr[2]
*866 txr[1]
*867 txr[0]
*868 cr[7]
*869 cr[6]
*870 cr[5]
*871 cr[4]
*872 cr[3]
*873 cr[2]
*874 cr[1]
*875 cr[0]
*876 byte_controller/bit_controller/copt_net_1
*877 byte_controller/aps_rename_1_
*878 byte_controller/aps_rename_2_
*879 byte_controller/aps_rename_3_
*880 HFSNET_0
*881 byte_controller/core_ack
*882 byte_controller/core_txd
*883 byte_controller/core_rxd
*884 byte_controller/ld
*885 byte_controller/shift
*886 byte_controller/N104
*887 byte_controller/N105
*888 byte_controller/N106
*889 byte_controller/N107
*890 byte_controller/n7
*891 byte_controller/n11
*892 byte_controller/n13
*893 byte_controller/n14
*894 byte_controller/n15
*895 byte_controller/n16
*896 byte_controller/n17
*897 byte_controller/n20
*898 byte_controller/n21
*899 byte_controller/n22
*900 byte_controller/n23
*901 byte_controller/n24
*902 byte_controller/n25
*903 byte_controller/n26
*904 byte_controller/n27
*905 byte_controller/n28
*906 byte_controller/n29
*907 byte_controller/n30
*908 byte_controller/n31
*909 byte_controller/n32
*910 byte_controller/n33
*911 byte_controller/n34
*912 byte_controller/n35
*913 byte_controller/n36
*914 byte_controller/n37
*915 byte_controller/n38
*916 byte_controller/n39
*917 byte_controller/n40
*918 byte_controller/n41
*919 byte_controller/n42
*920 byte_controller/n43
*921 byte_controller/n44
*922 byte_controller/n45
*923 byte_controller/n46
*924 byte_controller/n47
*925 byte_controller/n48
*926 byte_controller/n49
*927 byte_controller/n50
*928 byte_controller/n51
*929 byte_controller/n52
*930 byte_controller/n53
*931 byte_controller/n54
*932 byte_controller/n55
*933 byte_controller/n56
*934 byte_controller/n57
*935 byte_controller/n58
*936 byte_controller/n59
*937 byte_controller/n60
*938 byte_controller/n61
*939 byte_controller/n62
*940 byte_controller/n63
*941 byte_controller/n64
*942 byte_controller/n65
*943 byte_controller/n66
*944 byte_controller/n67
*945 byte_controller/n68
*946 byte_controller/n69
*947 byte_controller/n70
*948 byte_controller/n71
*949 byte_controller/n72
*950 byte_controller/n73
*951 byte_controller/n74
*952 byte_controller/n75
*953 byte_controller/n76
*954 byte_controller/n77
*955 byte_controller/n78
*956 byte_controller/n79
*957 byte_controller/n80
*958 byte_controller/n81
*959 byte_controller/n82
*960 HFSNET_1
*961 byte_controller/n4
*962 byte_controller/n5
*963 byte_controller/n6
*964 byte_controller/n8
*965 byte_controller/n9
*966 byte_controller/n10
*967 byte_controller/n12
*968 byte_controller/n18
*969 byte_controller/n19
*970 byte_controller/n83
*971 byte_controller/n84
*972 byte_controller/core_cmd[3]
*973 byte_controller/core_cmd[2]
*974 byte_controller/core_cmd[1]
*975 byte_controller/core_cmd[0]
*976 byte_controller/dcnt[2]
*977 byte_controller/dcnt[1]
*978 byte_controller/dcnt[0]
*979 byte_controller/c_state[4]
*980 byte_controller/c_state[3]
*981 byte_controller/c_state[2]
*982 byte_controller/c_state[1]
*983 byte_controller/c_state[0]
*984 byte_controller/bit_controller/copt_net_2
*985 byte_controller/HFSNET_2
*986 HFSNET_3
*987 byte_controller/bit_controller/dscl_oen
*988 byte_controller/bit_controller/sSCL
*989 byte_controller/bit_controller/N29
*990 byte_controller/bit_controller/N34
*991 byte_controller/bit_controller/N35
*992 byte_controller/bit_controller/N36
*993 byte_controller/bit_controller/N37
*994 byte_controller/bit_controller/N38
*995 byte_controller/bit_controller/N39
*996 byte_controller/bit_controller/N40
*997 byte_controller/bit_controller/N41
*998 byte_controller/bit_controller/N42
*999 byte_controller/bit_controller/N43
*1000 byte_controller/bit_controller/N44
*1001 byte_controller/bit_controller/N45
*1002 byte_controller/bit_controller/N46
*1003 byte_controller/bit_controller/N47
*1004 byte_controller/bit_controller/N48
*1005 byte_controller/bit_controller/N49
*1006 byte_controller/bit_controller/N66
*1007 byte_controller/bit_controller/cSCL_1_
*1008 byte_controller/bit_controller/cSDA_1_
*1009 byte_controller/bit_controller/N70
*1010 byte_controller/bit_controller/N71
*1011 byte_controller/bit_controller/N72
*1012 byte_controller/bit_controller/N73
*1013 byte_controller/bit_controller/N78
*1014 byte_controller/bit_controller/N79
*1015 byte_controller/bit_controller/N80
*1016 byte_controller/bit_controller/N81
*1017 byte_controller/bit_controller/N82
*1018 byte_controller/bit_controller/N83
*1019 byte_controller/bit_controller/N84
*1020 byte_controller/bit_controller/N85
*1021 byte_controller/bit_controller/N86
*1022 byte_controller/bit_controller/N87
*1023 byte_controller/bit_controller/N88
*1024 byte_controller/bit_controller/N89
*1025 byte_controller/bit_controller/N90
*1026 byte_controller/bit_controller/N91
*1027 byte_controller/bit_controller/N92
*1028 byte_controller/bit_controller/N93
*1029 byte_controller/bit_controller/N94
*1030 byte_controller/bit_controller/N95
*1031 byte_controller/bit_controller/N96
*1032 byte_controller/bit_controller/N97
*1033 byte_controller/bit_controller/N98
*1034 byte_controller/bit_controller/N99
*1035 byte_controller/bit_controller/N100
*1036 byte_controller/bit_controller/N101
*1037 byte_controller/bit_controller/N102
*1038 byte_controller/bit_controller/N103
*1039 byte_controller/bit_controller/N104
*1040 byte_controller/bit_controller/N105
*1041 byte_controller/bit_controller/sSDA
*1042 byte_controller/bit_controller/N122
*1043 byte_controller/bit_controller/N123
*1044 byte_controller/bit_controller/N124
*1045 byte_controller/bit_controller/sta_condition
*1046 byte_controller/bit_controller/sto_condition
*1047 byte_controller/bit_controller/N128
*1048 byte_controller/bit_controller/N129
*1049 byte_controller/bit_controller/N131
*1050 byte_controller/bit_controller/sda_chk
*1051 byte_controller/bit_controller/N138
*1052 byte_controller/bit_controller/N227
*1053 byte_controller/bit_controller/n4
*1054 byte_controller/bit_controller/n6
*1055 byte_controller/bit_controller/n24
*1056 byte_controller/bit_controller/n25
*1057 byte_controller/bit_controller/n26
*1058 byte_controller/bit_controller/n340
*1059 byte_controller/bit_controller/n350
*1060 byte_controller/bit_controller/n370
*1061 byte_controller/bit_controller/n410
*1062 byte_controller/bit_controller/n420